m1_h2o_out.xyz
 OpenBabel10032308353D

 49 50  0  0  0  0  0  0  0  0999 V2000
    8.1362   14.4983    0.2021 O   0  0  0  0  0  0  0  0  0  0  0  0
   12.8240   15.1358    5.4260 O   0  0  0  0  0  0  0  0  0  0  0  0
   15.4052   10.6320    3.5090 O   0  0  0  0  0  0  0  0  0  0  0  0
   10.5492   10.0182   -1.5230 O   0  0  0  0  0  0  0  0  0  0  0  0
    8.9820   12.6360    1.2406 N   0  0  0  0  0  0  0  0  0  0  0  0
    9.7429   12.3183    1.8315 H   0  0  0  0  0  0  0  0  0  0  0  0
   10.5343   14.2325    2.8369 N   0  0  0  0  0  0  0  0  0  0  0  0
   12.2018   13.0631    4.6653 N   0  0  0  0  0  0  0  0  0  0  0  0
   11.7525   12.5956    3.8850 H   0  0  0  0  0  0  0  0  0  0  0  0
   13.1451   10.4280    3.8925 N   0  0  0  0  0  0  0  0  0  0  0  0
   12.2460   10.2892    3.4286 H   0  0  0  0  0  0  0  0  0  0  0  0
   12.6694   10.1343    1.3119 N   0  0  0  0  0  0  0  0  0  0  0  0
   10.0844    9.9861    0.7307 N   0  0  0  0  0  0  0  0  0  0  0  0
   10.5078    9.9491    1.6600 H   0  0  0  0  0  0  0  0  0  0  0  0
    8.8771   13.9974    1.0423 C   0  0  0  0  0  0  0  0  0  0  0  0
    9.7521   14.8560    1.9076 C   0  0  0  0  0  0  0  0  0  0  0  0
   11.2862   15.0663    3.6142 C   0  0  0  0  0  0  0  0  0  0  0  0
   12.1636   14.4422    4.6590 C   0  0  0  0  0  0  0  0  0  0  0  0
   13.2359   12.3704    5.4165 C   0  0  0  0  0  0  0  0  0  0  0  0
   14.2037   12.7381    5.0570 H   0  0  0  0  0  0  0  0  0  0  0  0
   13.1445   12.6573    6.4703 H   0  0  0  0  0  0  0  0  0  0  0  0
   13.1559   10.8497    5.2783 C   0  0  0  0  0  0  0  0  0  0  0  0
   12.2326   10.4732    5.7306 H   0  0  0  0  0  0  0  0  0  0  0  0
   14.0072   10.3828    5.7842 H   0  0  0  0  0  0  0  0  0  0  0  0
   14.2704   10.4379    3.0943 C   0  0  0  0  0  0  0  0  0  0  0  0
   13.9854   10.2158    1.6398 C   0  0  0  0  0  0  0  0  0  0  0  0
   12.3864    9.9952   -0.0093 C   0  0  0  0  0  0  0  0  0  0  0  0
   10.9303    9.9896   -0.3597 C   0  0  0  0  0  0  0  0  0  0  0  0
    8.6646   10.2475    0.6162 C   0  0  0  0  0  0  0  0  0  0  0  0
    8.2500    9.6040   -0.1667 H   0  0  0  0  0  0  0  0  0  0  0  0
    8.2120    9.9683    1.5733 H   0  0  0  0  0  0  0  0  0  0  0  0
    8.3728   11.7149    0.2947 C   0  0  0  0  0  0  0  0  0  0  0  0
    7.2912   11.8920    0.2974 H   0  0  0  0  0  0  0  0  0  0  0  0
    8.7450   11.9728   -0.7034 H   0  0  0  0  0  0  0  0  0  0  0  0
    9.7177   16.2360    1.7103 C   0  0  0  0  0  0  0  0  0  0  0  0
    9.0827   16.6719    0.9438 H   0  0  0  0  0  0  0  0  0  0  0  0
   10.5120   17.0457    2.5116 C   0  0  0  0  0  0  0  0  0  0  0  0
   10.5107   18.1245    2.3801 H   0  0  0  0  0  0  0  0  0  0  0  0
   11.3062   16.4545    3.4851 C   0  0  0  0  0  0  0  0  0  0  0  0
   11.9361   17.0632    4.1280 H   0  0  0  0  0  0  0  0  0  0  0  0
   15.0207   10.1470    0.7162 C   0  0  0  0  0  0  0  0  0  0  0  0
   16.0559   10.2254    1.0346 H   0  0  0  0  0  0  0  0  0  0  0  0
   14.6931    9.9887   -0.6292 C   0  0  0  0  0  0  0  0  0  0  0  0
   15.4762    9.9361   -1.3818 H   0  0  0  0  0  0  0  0  0  0  0  0
   13.3528    9.9185   -1.0046 C   0  0  0  0  0  0  0  0  0  0  0  0
   13.0686    9.8185   -2.0481 H   0  0  0  0  0  0  0  0  0  0  0  0
   10.5210    9.2245    3.5513 O   0  0  0  0  0  0  0  0  0  0  0  0
   11.0579    8.4154    3.6368 H   0  0  0  0  0  0  0  0  0  0  0  0
    9.7310    9.0017    4.0748 H   0  0  0  0  0  0  0  0  0  0  0  0
  1 15  2  0  0  0  0
  4 28  2  0  0  0  0
  5  6  1  0  0  0  0
  7 17  1  0  0  0  0
  8 19  1  0  0  0  0
  9  8  1  0  0  0  0
 10 22  1  0  0  0  0
 11 10  1  0  0  0  0
 12 26  1  0  0  0  0
 13 14  1  0  0  0  0
 15  5  1  0  0  0  0
 15 16  1  0  0  0  0
 16  7  2  0  0  0  0
 17 18  1  0  0  0  0
 18  8  1  0  0  0  0
 18  2  2  0  0  0  0
 19 21  1  0  0  0  0
 20 19  1  0  0  0  0
 22 19  1  0  0  0  0
 22 23  1  0  0  0  0
 22 24  1  0  0  0  0
 25  3  2  0  0  0  0
 25 10  1  0  0  0  0
 26 25  1  0  0  0  0
 27 12  2  0  0  0  0
 28 27  1  0  0  0  0
 28 13  1  0  0  0  0
 29 13  1  0  0  0  0
 29 31  1  0  0  0  0
 30 29  1  0  0  0  0
 32 33  1  0  0  0  0
 32 29  1  0  0  0  0
 32  5  1  0  0  0  0
 34 32  1  0  0  0  0
 35 16  1  0  0  0  0
 35 37  2  0  0  0  0
 36 35  1  0  0  0  0
 37 39  1  0  0  0  0
 38 37  1  0  0  0  0
 39 17  2  0  0  0  0
 39 40  1  0  0  0  0
 41 42  1  0  0  0  0
 41 26  2  0  0  0  0
 43 41  1  0  0  0  0
 44 43  1  0  0  0  0
 45 43  2  0  0  0  0
 45 27  1  0  0  0  0
 46 45  1  0  0  0  0
 47 48  1  0  0  0  0
 47 49  1  0  0  0  0
M  END
$$$$
