m1_h2o_in.xyz
 OpenBabel10032308353D

 49 50  0  0  0  0  0  0  0  0999 V2000
    8.2801   14.5134    0.0741 O   0  0  0  0  0  0  0  0  0  0  0  0
   12.8348   15.1426    5.4120 O   0  0  0  0  0  0  0  0  0  0  0  0
   15.4989   10.3730    3.4556 O   0  0  0  0  0  0  0  0  0  0  0  0
   10.6258    9.8010   -1.5974 O   0  0  0  0  0  0  0  0  0  0  0  0
    8.9939   12.6722    1.2422 N   0  0  0  0  0  0  0  0  0  0  0  0
    9.4488   12.3669    2.1027 H   0  0  0  0  0  0  0  0  0  0  0  0
   10.3869   14.3130    2.9470 N   0  0  0  0  0  0  0  0  0  0  0  0
   12.1504   13.0799    4.6741 N   0  0  0  0  0  0  0  0  0  0  0  0
   11.5917   12.6098    3.9596 H   0  0  0  0  0  0  0  0  0  0  0  0
   13.2177   10.4226    3.7696 N   0  0  0  0  0  0  0  0  0  0  0  0
   12.3445   10.4488    3.2438 H   0  0  0  0  0  0  0  0  0  0  0  0
   12.7905    9.8285    1.2192 N   0  0  0  0  0  0  0  0  0  0  0  0
   10.2085    9.9896    0.6590 N   0  0  0  0  0  0  0  0  0  0  0  0
   10.6834   10.0825    1.5557 H   0  0  0  0  0  0  0  0  0  0  0  0
    8.8999   14.0343    1.0182 C   0  0  0  0  0  0  0  0  0  0  0  0
    9.6601   14.9207    1.9687 C   0  0  0  0  0  0  0  0  0  0  0  0
   11.1819   15.1204    3.7025 C   0  0  0  0  0  0  0  0  0  0  0  0
   12.1114   14.4635    4.6894 C   0  0  0  0  0  0  0  0  0  0  0  0
   13.2283   12.3640    5.3457 C   0  0  0  0  0  0  0  0  0  0  0  0
   14.1765   12.7682    4.9736 H   0  0  0  0  0  0  0  0  0  0  0  0
   13.1647   12.6037    6.4137 H   0  0  0  0  0  0  0  0  0  0  0  0
   13.1924   10.8406    5.1602 C   0  0  0  0  0  0  0  0  0  0  0  0
   12.2723   10.4316    5.5909 H   0  0  0  0  0  0  0  0  0  0  0  0
   14.0459   10.3892    5.6773 H   0  0  0  0  0  0  0  0  0  0  0  0
   14.3632   10.2500    3.0179 C   0  0  0  0  0  0  0  0  0  0  0  0
   14.0997    9.9579    1.5607 C   0  0  0  0  0  0  0  0  0  0  0  0
   12.4944    9.7457   -0.1047 C   0  0  0  0  0  0  0  0  0  0  0  0
   11.0262    9.8229   -0.4421 C   0  0  0  0  0  0  0  0  0  0  0  0
    8.7811   10.2474    0.5928 C   0  0  0  0  0  0  0  0  0  0  0  0
    8.3477    9.6067   -0.1828 H   0  0  0  0  0  0  0  0  0  0  0  0
    8.3648    9.9469    1.5602 H   0  0  0  0  0  0  0  0  0  0  0  0
    8.4275   11.7133    0.3014 C   0  0  0  0  0  0  0  0  0  0  0  0
    7.3390   11.8396    0.3224 H   0  0  0  0  0  0  0  0  0  0  0  0
    8.7707   11.9914   -0.7017 H   0  0  0  0  0  0  0  0  0  0  0  0
    9.6778   16.2924    1.7359 C   0  0  0  0  0  0  0  0  0  0  0  0
    9.0977   16.7266    0.9263 H   0  0  0  0  0  0  0  0  0  0  0  0
   10.4850   17.0929    2.5376 C   0  0  0  0  0  0  0  0  0  0  0  0
   10.5368   18.1655    2.3681 H   0  0  0  0  0  0  0  0  0  0  0  0
   11.2549   16.5003    3.5338 C   0  0  0  0  0  0  0  0  0  0  0  0
   11.9229   17.1002    4.1460 H   0  0  0  0  0  0  0  0  0  0  0  0
   15.1299    9.9557    0.6324 C   0  0  0  0  0  0  0  0  0  0  0  0
   16.1617   10.0815    0.9467 H   0  0  0  0  0  0  0  0  0  0  0  0
   14.7987    9.8295   -0.7187 C   0  0  0  0  0  0  0  0  0  0  0  0
   15.5807    9.8417   -1.4749 H   0  0  0  0  0  0  0  0  0  0  0  0
   13.4588    9.7345   -1.1005 C   0  0  0  0  0  0  0  0  0  0  0  0
   13.1762    9.6875   -2.1480 H   0  0  0  0  0  0  0  0  0  0  0  0
   11.5261   11.9818    2.1878 O   0  0  0  0  0  0  0  0  0  0  0  0
   12.4074   12.3981    2.1355 H   0  0  0  0  0  0  0  0  0  0  0  0
   11.1944   12.1569    1.2846 H   0  0  0  0  0  0  0  0  0  0  0  0
  1 15  2  0  0  0  0
  4 28  2  0  0  0  0
  5  6  1  0  0  0  0
  7 17  1  0  0  0  0
  8 18  1  0  0  0  0
  8 19  1  0  0  0  0
  9  8  1  0  0  0  0
 10 22  1  0  0  0  0
 11 10  1  0  0  0  0
 12 26  1  0  0  0  0
 13 14  1  0  0  0  0
 15  5  1  0  0  0  0
 15 16  1  0  0  0  0
 16  7  2  0  0  0  0
 17 18  1  0  0  0  0
 18  2  2  0  0  0  0
 19 21  1  0  0  0  0
 20 19  1  0  0  0  0
 22 19  1  0  0  0  0
 22 23  1  0  0  0  0
 22 24  1  0  0  0  0
 25  3  2  0  0  0  0
 25 10  1  0  0  0  0
 26 25  1  0  0  0  0
 27 12  2  0  0  0  0
 28 27  1  0  0  0  0
 28 13  1  0  0  0  0
 29 13  1  0  0  0  0
 29 31  1  0  0  0  0
 30 29  1  0  0  0  0
 32 33  1  0  0  0  0
 32 29  1  0  0  0  0
 32  5  1  0  0  0  0
 34 32  1  0  0  0  0
 35 16  1  0  0  0  0
 35 37  2  0  0  0  0
 36 35  1  0  0  0  0
 37 39  1  0  0  0  0
 38 37  1  0  0  0  0
 39 17  2  0  0  0  0
 39 40  1  0  0  0  0
 41 42  1  0  0  0  0
 41 26  2  0  0  0  0
 43 41  1  0  0  0  0
 44 43  1  0  0  0  0
 45 43  2  0  0  0  0
 45 27  1  0  0  0  0
 46 45  1  0  0  0  0
 48 47  1  0  0  0  0
 49 47  1  0  0  0  0
M  END
$$$$
