m1_ss_sa_h2o.xyz
 OpenBabel10032308353D

 49 50  0  0  0  0  0  0  0  0999 V2000
    8.8233    7.7481   -0.3798 O   0  0  0  0  0  0  0  0  0  0  0  0
   10.8334    9.1322    5.1675 O   0  0  0  0  0  0  0  0  0  0  0  0
   11.4364   13.3965    7.4520 O   0  0  0  0  0  0  0  0  0  0  0  0
    6.3124   12.6564    2.6920 O   0  0  0  0  0  0  0  0  0  0  0  0
    9.1034    9.7761    0.7003 N   0  0  0  0  0  0  0  0  0  0  0  0
    9.6844   10.1633    1.4301 H   0  0  0  0  0  0  0  0  0  0  0  0
   10.8415    8.6916    2.3316 N   0  0  0  0  0  0  0  0  0  0  0  0
   13.0862    9.3555    4.8990 N   0  0  0  0  0  0  0  0  0  0  0  0
   13.8577    9.1283    4.2902 H   0  0  0  0  0  0  0  0  0  0  0  0
   11.0911   11.3344    6.5221 N   0  0  0  0  0  0  0  0  0  0  0  0
   10.4820   10.7842    5.9058 H   0  0  0  0  0  0  0  0  0  0  0  0
    8.9147   12.4045    5.1442 N   0  0  0  0  0  0  0  0  0  0  0  0
    7.6272   10.8541    3.1140 N   0  0  0  0  0  0  0  0  0  0  0  0
    8.3407   10.4630    3.7494 H   0  0  0  0  0  0  0  0  0  0  0  0
    9.4295    8.4651    0.4080 C   0  0  0  0  0  0  0  0  0  0  0  0
   10.5725    7.9490    1.2298 C   0  0  0  0  0  0  0  0  0  0  0  0
   11.7376    8.1908    3.2147 C   0  0  0  0  0  0  0  0  0  0  0  0
   11.8529    8.9049    4.5147 C   0  0  0  0  0  0  0  0  0  0  0  0
   13.3147   10.4725    5.8256 C   0  0  0  0  0  0  0  0  0  0  0  0
   14.3053   10.2815    6.2489 H   0  0  0  0  0  0  0  0  0  0  0  0
   13.3849   11.3762    5.2084 H   0  0  0  0  0  0  0  0  0  0  0  0
   12.3175   10.6977    6.9773 C   0  0  0  0  0  0  0  0  0  0  0  0
   12.0494    9.7486    7.4520 H   0  0  0  0  0  0  0  0  0  0  0  0
   12.7873   11.3363    7.7347 H   0  0  0  0  0  0  0  0  0  0  0  0
   10.7531   12.6433    6.7637 C   0  0  0  0  0  0  0  0  0  0  0  0
    9.4783   13.1348    6.1335 C   0  0  0  0  0  0  0  0  0  0  0  0
    7.8090   12.8884    4.5282 C   0  0  0  0  0  0  0  0  0  0  0  0
    7.1914   12.1334    3.3718 C   0  0  0  0  0  0  0  0  0  0  0  0
    7.0691   10.0158    2.0678 C   0  0  0  0  0  0  0  0  0  0  0  0
    7.1948    8.9785    2.3972 H   0  0  0  0  0  0  0  0  0  0  0  0
    6.0023   10.2378    2.0086 H   0  0  0  0  0  0  0  0  0  0  0  0
    7.7245   10.2350    0.6921 C   0  0  0  0  0  0  0  0  0  0  0  0
    7.7383   11.2972    0.4271 H   0  0  0  0  0  0  0  0  0  0  0  0
    7.1683    9.6850   -0.0729 H   0  0  0  0  0  0  0  0  0  0  0  0
   11.2243    6.7637    0.9401 C   0  0  0  0  0  0  0  0  0  0  0  0
   10.9720    6.1927    0.0528 H   0  0  0  0  0  0  0  0  0  0  0  0
   12.1982    6.3177    1.8378 C   0  0  0  0  0  0  0  0  0  0  0  0
   12.7257    5.3868    1.6525 H   0  0  0  0  0  0  0  0  0  0  0  0
   12.4569    7.0355    3.0030 C   0  0  0  0  0  0  0  0  0  0  0  0
   13.1547    6.6805    3.7501 H   0  0  0  0  0  0  0  0  0  0  0  0
    8.9369   14.3275    6.5711 C   0  0  0  0  0  0  0  0  0  0  0  0
    9.4048   14.8751    7.3795 H   0  0  0  0  0  0  0  0  0  0  0  0
    7.7811   14.7962    5.9589 C   0  0  0  0  0  0  0  0  0  0  0  0
    7.3249   15.7221    6.2905 H   0  0  0  0  0  0  0  0  0  0  0  0
    7.2167   14.0762    4.9130 C   0  0  0  0  0  0  0  0  0  0  0  0
    6.3238   14.4281    4.4108 H   0  0  0  0  0  0  0  0  0  0  0  0
    9.8974   10.7212    3.7789 O   0  0  0  0  0  0  0  0  0  0  0  0
   10.8519   10.6986    3.8635 H   0  0  0  0  0  0  0  0  0  0  0  0
    9.6967   11.1205    2.9337 H   0  0  0  0  0  0  0  0  0  0  0  0
  1 15  2  0  0  0  0
  4 28  2  0  0  0  0
  5  6  1  0  0  0  0
  7 17  1  0  0  0  0
  8 19  1  0  0  0  0
  9  8  1  0  0  0  0
 10 25  1  0  0  0  0
 10 22  1  0  0  0  0
 11 10  1  0  0  0  0
 12 26  1  0  0  0  0
 13 28  1  0  0  0  0
 13 14  1  0  0  0  0
 15  5  1  0  0  0  0
 15 16  1  0  0  0  0
 16  7  2  0  0  0  0
 17 18  1  0  0  0  0
 18  8  1  0  0  0  0
 18  2  2  0  0  0  0
 19 20  1  0  0  0  0
 19 22  1  0  0  0  0
 21 19  1  0  0  0  0
 22 23  1  0  0  0  0
 22 24  1  0  0  0  0
 25  3  2  0  0  0  0
 26 41  2  0  0  0  0
 26 25  1  0  0  0  0
 27 45  1  0  0  0  0
 27 12  2  0  0  0  0
 28 27  1  0  0  0  0
 29 30  1  0  0  0  0
 29 13  1  0  0  0  0
 31 29  1  0  0  0  0
 32  5  1  0  0  0  0
 32 29  1  0  0  0  0
 33 32  1  0  0  0  0
 34 32  1  0  0  0  0
 35 16  1  0  0  0  0
 35 37  2  0  0  0  0
 36 35  1  0  0  0  0
 37 39  1  0  0  0  0
 38 37  1  0  0  0  0
 39 17  2  0  0  0  0
 39 40  1  0  0  0  0
 41 42  1  0  0  0  0
 43 44  1  0  0  0  0
 43 41  1  0  0  0  0
 45 43  2  0  0  0  0
 46 45  1  0  0  0  0
 47 48  1  0  0  0  0
 49 47  1  0  0  0  0
M  END
$$$$
